ca_results/summer/N-1/inlf/N1_lines_with_realweather_T.csv
Contingency,Converged,FromBus#,ToBus#,CKT,Pij(MW),Qij(MVAr),Sij(MVA),Pji(MW),Qji(MVAr),Sji(MVA),RateA,Ploss(MW),Qloss(MVAr),Loading_%,Violation,Current(A),Tcond(degC),lat_mid,lon_mid,bearing_deg,length_km,weather_site_id,weather_site_distance_km,weather_site_elevation_m,air_temperature,ghi,surface_pressure,surface_pressure_pa,wind_direction,wind_speed,wind_conductor_angle_deg,Tcond_realweather(degC),Ampacity_at_75C(A),Loading_realweather_%
LT_101-102_A1,True,101.0,103.0,A2,62.186699,-1.057476,62.19569,-59.895067,9.832983,60.696842,175.0,2.291631,8.775508,35.54,False,270.00582575002005,50.29229164123535,33.4664680426,-114.25302055200001,281.65513948457516,78.99713734402492,272693,27.889914770408065,91.0,43.29999923706055,830.0,1002.0,100200.0,122.0,3.200000047683716,20.34486051542484,52.50768378795328,892.3115504992188,30.259142739882805
LT_101-102_A1,True,101.0,105.0,A3,119.457367,-12.407561,120.099998,-116.04661,25.561469,118.828466,175.0,3.410757,13.153908,68.63,False,521.3817731190979,59.0622615814209,33.527831551000006,-113.917332536,332.7077807708397,32.97810897483768,272693,55.37740896846629,91.0,43.29999923706055,830.0,1002.0,100200.0,122.0,3.200000047683716,149.2922192291603,56.95323510441085,963.4977724943705,54.113438349660974
LT_101-102_A1,True,102.0,104.0,A4,65.425293,5.258804,65.636299,-63.890522,0.636974,63.893697,175.0,1.534771,5.895778,37.51,False,284.68498212807253,50.656442642211914,33.58499098295,-113.82567627200001,0.053868993317280456,50.552094829892674,273508,61.87228040205209,89.0,43.20000076293945,832.0,999.0,99900.0,122.0,3.0,121.94613100668272,50.580361911248474,1041.5330631958345,27.33326403048086
LT_101-102_A1,True,102.0,106.0,A5,63.919102,-9.108351,64.564804,-61.699431,17.61635,64.165065,175.0,2.219671,8.507999,36.89,False,280.0375760498395,50.53915977478027,33.54785744425,-114.003928834,322.14286051780334,53.63905217588826,272693,47.56965144659038,91.0,43.29999923706055,830.0,1002.0,100200.0,122.0,3.200000047683716,159.85713948219666,52.708750759520626,890.7119722186746,31.43974537046963
LT_101-102_A1,True,103.0,109.0,A6,10.573445,-13.750911,17.346045,-10.479577,14.110589,17.576411,175.0,0.093869,0.359678,9.91,False,77.65207940334824,47.27984428405762,33.72863454765,-114.48934004450001,38.03489934721705,54.229833774295344,273508,0.9566740748851706,89.0,43.20000076293945,832.0,999.0,99900.0,122.0,3.0,83.96510065278295,48.406999187332985,1078.7158164828188,7.198566871535719
LT_101-102_A1,True,103.0,124.0,A7,-104.493309,-22.572834,106.903625,104.755007,33.544096,109.994626,400.0,0.261698,10.971262,26.73,False,478.5695400309272,57.1988582611084,33.53989894155,-114.6634437025,62.122581397062504,1.4584863725043906,270245,1.1363138040058882,75.0,43.5,835.0,1001.0,100100.0,122.0,3.200000047683716,59.877418602937496,54.11433506011963,1059.3326668731872,45.17651111841119
LT_101-102_A1,True,104.0,109.0,A8,0.655492,-10.38637,10.407033,-0.629557,10.486087,10.504969,175.0,0.025936,0.099718,5.95,False,46.46954663649378,47.10433006286621,33.8663698982,-114.066850007,285.22792751338363,46.175372092212655,277498,39.42199663193729,151.0,42.29999923706055,833.0,989.0,98900.0,107.0,2.5999999046325684,1.7720724866163664,53.08931640773517,681.7502693611173,6.816212435096121
LT_101-102_A1,True,105.0,110.0,A9,55.37516,-35.417213,65.732697,-54.299102,39.5268,67.162195,175.0,1.076058,4.109587,37.56,False,288.7071715976977,50.759782791137695,33.786176454599996,-114.14599382399999,316.1102545640957,39.125724159032,273508,31.981051974502726,89.0,43.20000076293945,832.0,999.0,99900.0,122.0,3.0,165.88974543590427,54.05064235498867,823.750016524775,35.04791087175833
LT_101-102_A1,True,106.0,110.0,10,-54.516296,-127.89135,139.025986,55.014455,130.05794,141.214935,175.0,0.498158,2.16659,79.44,False,609.8699018919489,63.370561599731445,33.82541475805,-114.23744436449999,332.2035219612036,21.973081610449327,273508,25.547898565618038,89.0,43.20000076293945,832.0,999.0,99900.0,122.0,3.0,149.7964780387964,60.24176782042923,942.7859993722285,64.68805246344792
LT_101-102_A1,True,107.0,108.0,11,122.923065,15.323141,123.874451,-120.278859,-5.26048,120.39384,175.0,2.644206,10.062661,70.79,False,537.399505800823,59.7971248626709,34.57823637615,-113.7314761945,191.80450991680215,27.040331428742554,280694,48.23352083597048,170.0,42.0,826.0,991.0,99100.0,137.0,2.5,125.19549008319785,55.802581787109375,1000.8290183522827,53.69543607813971
LT_101-102_A1,True,107.0,203.0,B1,125.261009,-8.692943,125.562286,-118.155191,35.882266,123.483547,175.0,7.105818,27.189323,71.75,False,544.7217719142232,60.13913154602051,35.0258321095,-113.838621218,341.18656177700467,77.23111035384919,273483,67.12170109617558,151.0,42.5,838.0,987.0,98700.0,137.0,3.0999999046325684,155.81343822299533,58.32822322845459,921.2724485667935,59.12710976667507
LT_101-102_A1,True,108.0,109.0,1,-13.787068,-3.96052,14.344649,13.882143,4.324674,14.540175,175.0,0.095074,0.364154,8.2,False,64.06192868254612,47.19290733337402,34.18982353435,-114.034962272,220.15903880363092,78.21129921512714,280694,14.468759995973627,170.0,42.0,826.0,991.0,99100.0,137.0,2.5,96.84096119636908,47.661712646484375,1040.9841760538727,6.153977183917425
LT_101-102_A1,True,108.0,110.0,2,-12.058275,-19.153782,22.633368,12.27418,19.980742,23.449638,175.0,0.215904,0.82696,12.93,False,101.07861172914176,47.46930122375488,34.1860019329,-114.0273040675,218.96149073017423,77.97500234740549,280694,15.230903469254052,170.0,42.0,826.0,991.0,99100.0,137.0,2.5,98.03850926982577,47.837860107421875,1038.9794720378793,9.728643774923073
LT_101-102_A1,True,109.0,111.0,14,-59.693401,-18.683384,62.548946,59.780667,22.341857,63.819172,400.0,0.087266,3.658473,15.64,False,276.3545997072924,50.44730186462402,33.91241117325,-114.304699342,159.67425780531744,1.9031858797390406,273502,18.441799885429408,97.0,42.79999923706055,833.0,991.0,99100.0,107.0,2.700000047683716,127.32574219468256,50.63410113358259,1003.6141417602157,27.535941175818866
LT_101-102_A1,True,109.0,112.0,15,-92.621918,-31.709358,97.899452,92.835696,40.671677,101.354091,400.0,0.213778,8.962318,24.47,False,432.540683723484,55.36087989807129,33.9156511436,-114.31084169450001,203.947168667828,1.1643839227143522,273502,17.80785802409589,97.0,42.79999923706055,833.0,991.0,99100.0,107.0,2.700000047683716,83.05283133217199,52.80297321188118,1048.6219145928005,41.248487915823084
LT_101-102_A1,True,110.0,111.0,16,-72.827492,11.654428,73.754105,72.942491,-6.833248,73.261861,400.0,0.115,4.82118,18.44,False,317.2440029728336,51.53237342834473,33.9085895718,-114.2970411375,218.83185834528146,1.199999298332487,273502,19.225322946508676,97.0,42.79999923706055,833.0,991.0,99100.0,107.0,2.700000047683716,68.16814165471854,50.93998797552922,1028.404391386048,30.84817661516041
LT_101-102_A1,True,110.0,112.0,17,-106.794907,-1.354274,106.80349,107.036061,11.46429,107.648262,400.0,0.241154,10.110016,26.7,False,459.40177430217614,56.41232490539551,33.91182954215,-114.30318349000001,263.52385649728956,1.8981503306103409,273502,18.59008452775047,97.0,42.79999923706055,833.0,991.0,99100.0,107.0,2.700000047683716,23.476143502710443,56.979474692103395,875.7842274815599,52.45604566586569
LT_101-102_A1,True,111.0,113.0,18,-118.546783,-16.261969,119.656982,119.458757,23.544458,121.756873,500.0,0.911973,7.28249,23.93,False,310.888622482767,51.35439872741699,34.1293332045,-114.287887337,2.7798809616962217,50.08528154115857,277498,4.623035951639475,151.0,42.29999923706055,833.0,989.0,98900.0,107.0,2.5999999046325684,104.22011903830378,50.37802260505123,1034.9994403027815,30.03756430938927
LT_101-102_A1,True,111.0,114.0,19,-14.176363,0.753359,14.196366,14.188389,-0.652521,14.203386,500.0,0.012026,0.100838,2.84,False,36.88450599565673,47.0682430267334,33.84073608285,-114.56051449450001,253.6860893720658,49.96150226236739,271871,2.0077707949584878,269.0,42.599998474121094,839.0,987.0,98700.0,107.0,2.700000047683716,33.313910627934206,49.22247204884479,936.5041460602279,3.9385309879113595
LT_101-102_A1,True,112.0,113.0,20,-60.281952,2.351937,60.327816,60.512012,-0.514812,60.514202,500.0,0.23006,1.837125,12.07,False,154.47369750178538,48.08606147766113,34.132573174849995,-114.29402968950001,4.126021058856338,49.43428786192113,277498,4.172118022807155,151.0,42.29999923706055,833.0,989.0,98900.0,107.0,2.5999999046325684,102.87397894114366,48.493110870222154,1036.7789137969953,14.899386498521306
LT_101-102_A1,True,112.0,123.0,21,-139.589813,-54.487904,149.847412,142.272854,76.13629,161.363874,500.0,2.683041,21.648386,29.97,False,383.69504032291513,53.60163688659668,34.14643314265,-114.691095425,307.21393123188295,87.0443510046333,269416,1.9810322366643094,324.0,41.70000076293945,849.0,971.0,97100.0,128.0,2.799999952316284,0.7860687681170475,59.632168704156356,688.1021386702778,55.76134977060037
LT_101-102_A1,True,113.0,123.0,22,-120.862564,-65.937065,137.678818,122.906242,82.071239,147.789149,500.0,2.043678,16.134174,27.54,False,352.3023597525563,52.57725715637207,34.3681403032,-114.6717226875,272.6456124243665,72.95310639099516,270224,1.0590202066430323,388.0,41.400001525878906,847.0,966.0,96600.0,137.0,2.799999952316284,44.354387575633496,50.90717499454331,1007.7230552493111,34.960236140017315
LT_101-102_A1,True,113.0,215.0,B2,64.574318,-59.9203,88.092484,-63.856434,65.294618,91.329246,500.0,0.717884,5.374318,17.62,False,225.41731865873737,49.30071830749512,34.7514356122,-114.425215633,342.78515118710203,92.50852375989442,273483,7.038480495579008,151.0,42.5,838.0,987.0,98700.0,137.0,3.0999999046325684,154.21484881289797,50.68106174468994,932.388400799089,24.176332359513157
LT_101-102_A1,True,114.0,116.0,23,-179.966721,-24.486147,181.624863,181.729409,45.247963,187.277752,500.0,1.762689,20.761816,36.32,False,472.5522079445486,56.94870948791504,33.71905866655,-115.07048464,254.58110202453383,48.11325865555416,262163,1.5254500733407452,387.0,42.79999923706055,848.0,984.0,98400.0,125.0,3.0999999046325684,50.418897975466166,53.970401805047004,1036.3115443735392,45.59943489100194
LT_101-102_A1,True,115.0,116.0,24,-3.508428,-39.80267,39.957001,3.538468,40.057541,40.213522,500.0,0.03004,0.254871,7.99,False,101.71405334906169,47.47504234313965,33.5836074796,-115.325283222,2.6007230139453554,17.236067799848346,256615,1.991195585655014,994.0,37.79999923706055,878.0,903.0,90300.0,123.0,3.4000000953674316,120.39927698605464,43.64565012172534,1146.9799543644317,8.86798875272618
LT_101-102_A1,True,115.0,121.0,1,-109.012054,15.179917,110.063889,109.770431,-8.997799,110.138585,500.0,0.758376,6.182118,22.01,False,280.1772905216587,50.54244041442871,33.5166525943,-115.700143213,272.1450146356158,68.75953430638423,249642,1.4759306061184725,343.0,41.900001525878906,868.0,983.0,98300.0,123.0,3.5,30.85498536438422,50.168226372174104,1005.9711186612424,27.851424889267374
LT_101-102_A1,True,115.0,121.0,2,-109.012054,15.179917,110.063889,109.770431,-8.997799,110.138585,500.0,0.758376,6.182118,22.01,False,280.1772905216587,50.54244041442871,33.5166525943,-115.700143213,272.1450146356158,68.75953430638423,249642,1.4759306061184725,343.0,41.900001525878906,868.0,983.0,98300.0,123.0,3.5,30.85498536438422,50.168226372174104,1005.9711186612424,27.851424889267374
LT_101-102_A1,True,115.0,124.0,26,105.647324,29.840542,109.780762,-104.755014,-23.224041,107.298505,500.0,0.892309,6.616501,21.96,False,279.45656589113497,50.524396896362305,33.524574389449995,-114.9929983545,86.0634407392426,62.52120431249092,263770,1.2987773397332119,181.0,43.099998474121094,843.0,985.0,98500.0,125.0,3.200000047683716,38.936559260757406,50.97642732707027,1002.0924633922735,27.887303427582054
LT_101-102_A1,True,116.0,117.0,27,-137.377884,37.116295,142.303543,138.000665,-31.728697,141.601178,500.0,0.622781,5.387598,28.46,False,359.83056877090706,52.81510353088379,33.6181318947,-115.48093336950001,252.22842579087137,31.107139968025567,253477,1.9140400448987045,626.0,40.29999923706055,872.0,951.0,95100.0,123.0,3.5,50.77157420912863,48.894176323687134,1109.7604975947208,32.42416445267233
LT_101-102_A1,True,116.0,119.0,28,21.657248,-81.455246,84.285194,-21.452768,83.020064,85.747025,500.0,0.204479,1.564818,16.86,False,213.12462540715688,49.05795097351074,33.76505507735,-115.3450942825,349.13986505303745,23.556813083232125,256610,0.7090697519730219,173.0,42.900001525878906,810.0,993.0,99300.0,135.0,3.299999952316284,145.86013494696255,49.81942495969997,998.9323056165108,21.335242058832286
LT_101-102_A1,True,117.0,118.0,29,-88.073524,49.652176,101.105309,88.286339,-48.165192,100.570191,500.0,0.212814,1.486984,20.22,False,257.09634794145074,49.987192153930664,33.55988168545,-115.720382362,257.0094374622221,15.136559396239369,248877,2.067412682375808,673.0,38.400001525878906,880.0,920.0,92000.0,123.0,3.5,45.99056253777792,45.816866249006125,1117.9487585435186,22.997149554188866
LT_101-102_A1,True,117.0,122.0,30,-49.927143,-12.543305,51.47868,50.285721,15.227736,52.540819,500.0,0.358578,2.68443,10.3,False,130.90292444333068,47.782602310180664,33.19704830715,-115.9825780325,217.2849118719248,105.44450604735857,244330,1.4502294277503673,-1.0,44.20000076293945,867.0,1014.0,101400.0,108.0,3.5,70.7150881280752,49.567095545899065,1089.7721202628236,12.011953876353564
LT_101-102_A1,True,118.0,121.0,1,-19.495739,-9.720158,21.784519,19.509125,9.835962,21.84839,500.0,0.013386,0.115805,4.36,False,55.697228824711274,47.1469783782959,33.53582614645,-115.9353669965,265.66484574225194,25.175829908557873,245078,0.7639325348498951,-54.0,43.79999923706055,863.0,1013.0,101300.0,123.0,3.5,37.33515425774806,49.55508920891589,1014.8210482052408,5.488379347591821
LT_101-102_A1,True,118.0,121.0,2,-19.495739,-9.720158,21.784519,19.509125,9.835962,21.84839,500.0,0.013386,0.115805,4.36,False,55.697228824711274,47.1469783782959,33.53582614645,-115.9353669965,265.66484574225194,25.175829908557873,245078,0.7639325348498951,-54.0,43.79999923706055,863.0,1013.0,101300.0,123.0,3.5,37.33515425774806,49.55508920891589,1014.8210482052408,5.488379347591821
LT_101-102_A1,True,119.0,120.0,1,-66.608345,-54.865475,86.29538,66.951228,57.603538,88.321201,500.0,0.342883,2.738063,17.26,False,214.39522127343955,49.08255577087402,34.056828753299996,-115.315800239,13.212646757626715,42.89429659955225,257390,1.5908349052243251,342.0,42.0,867.0,977.0,97700.0,128.0,3.0999999046325684,114.78735324237329,48.590057373046875,1074.7579687594014,19.94823276545854
LT_101-102_A1,True,119.0,120.0,2,-66.608345,-54.865475,86.29538,66.951228,57.603538,88.321201,500.0,0.342883,2.738063,17.26,False,214.39522127343955,49.08255577087402,34.056828753299996,-115.315800239,13.212646757626715,42.89429659955225,257390,1.5908349052243251,342.0,42.0,867.0,977.0,97700.0,128.0,3.0999999046325684,114.78735324237329,48.590057373046875,1074.7579687594014,19.94823276545854
LT_101-102_A1,True,120.0,123.0,1,-121.640991,-60.05497,135.658127,122.149312,63.77586,137.79628,500.0,0.508321,3.72089,27.13,False,329.34727736183567,51.88094139099121,34.31328943195,-115.1656291745,49.28215064958658,23.450450783620735,259756,2.2441267823391438,707.0,40.79999923706055,864.0,957.0,95700.0,159.0,3.0999999046325684,109.71784935041342,48.882893401059846,1097.8438553079484,29.999464474795715
LT_101-102_A1,True,120.0,123.0,2,-121.640991,-60.05497,135.658127,122.149312,63.77586,137.79628,500.0,0.508321,3.72089,27.13,False,329.34727736183567,51.88094139099121,34.31328943195,-115.1656291745,49.28215064958658,23.450450783620735,259756,2.2441267823391438,707.0,40.79999923706055,864.0,957.0,95700.0,159.0,3.0999999046325684,109.71784935041342,48.882893401059846,1097.8438553079484,29.999464474795715
LT_101-102_A1,True,121.0,122.0,34,-50.916393,-18.503799,54.174435,51.169808,20.415,55.091937,500.0,0.253415,1.911201,10.83,False,138.16093934004604,47.87035942077637,33.172992768149996,-116.197562667,196.75137436176485,82.21478769358605,240603,1.5911941943704755,192.0,43.599998474121094,868.0,999.0,99900.0,108.0,3.200000047683716,91.24862563823515,49.05438999393664,1097.5885361109797,12.58768061022061
LT_101-102_A1,True,121.0,325.0,1,192.357285,1.114379,192.360504,-187.75941,35.984033,191.176481,500.0,4.597874,37.098412,38.47,False,490.5765593044889,57.7065372467041,33.88950639194999,-116.599877614,309.8193181099749,126.63031816801767,233264,1.7623985492877712,289.0,43.099998474121094,895.0,996.0,99600.0,177.0,3.4000000953674316,47.180681890025085,54.559671677227016,1048.470655211924,46.789727196068284
LT_101-102_A1,True,123.0,217.0,B3,160.522278,-9.731748,160.816986,-158.184967,26.996322,160.47207,500.0,2.337311,17.264574,32.16,False,384.4626750467874,53.62788200378418,34.73487458595,-114.99497599799999,9.71178695733397,79.62675421689616,263740,1.4324488671760864,638.0,39.79999923706055,865.0,941.0,94100.0,159.0,3.4000000953674316,149.28821304266603,50.31104167938611,1020.8059346926893,37.66266064690629
LT_101-102_A1,True,201.0,202.0,B1,12.094394,-29.480183,31.864643,-12.087165,29.513855,31.893059,175.0,0.007229,0.033672,18.21,False,139.75069090801622,47.8908634185791,36.2728130805,-113.73374720749999,330.06786134221716,4.4011989362247,264540,155.6214060520281,765.0,39.70000076293945,873.0,927.0,92700.0,189.0,3.9000000953674316,38.93213865778284,45.81259858774865,1104.6890091957675,12.650681752483182
LT_101-102_A1,True,201.0,203.0,B2,-40.452244,14.421532,42.946068,41.616176,-9.964402,42.79247,175.0,1.163933,4.457129,24.54,False,188.3511663627503,48.61014366149902,35.80503293055,-113.848714785,192.97069564697503,102.80891251473568,269393,112.52290251671089,362.0,41.20000076293945,742.0,962.0,96200.0,184.0,4.099999904632568,171.02930435302497,49.2419517223243,888.1517696136377,21.20709239195532
LT_101-102_A1,True,201.0,205.0,B3,58.390953,-18.439013,61.233162,-57.493508,21.900095,61.52331,175.0,0.897445,3.461083,34.99,False,268.55397990752584,50.25702476501465,36.1674465537,-113.852268562,230.19480725713623,30.595990672773983,264540,139.93990431001146,765.0,39.70000076293945,873.0,927.0,92700.0,189.0,3.9000000953674316,138.80519274286377,46.99268014169502,1114.911760467185,24.087464984223754
LT_101-102_A1,True,202.0,204.0,B4,32.333302,2.722697,32.447735,-31.94827,-1.24361,31.972465,175.0,0.385031,1.479087,18.54,False,142.17781714686097,47.92120933532715,36.24012743795,-113.98393331349999,255.58339309310898,44.09339369915581,260525,137.5558724758757,1528.0,35.400001525878906,624.0,847.0,84700.0,189.0,3.700000047683716,113.41660690689102,39.76373020884057,1234.155266280836,11.520253652955523
LT_101-102_A1,True,202.0,206.0,B5,46.342564,-15.886622,48.989979,-45.064411,20.785781,49.627108,175.0,1.278152,4.899158,27.99,False,214.66177150086307,49.08829689025879,36.0386798677,-113.8181726305,193.11788205041233,57.370194606690454,264540,132.24501532331928,765.0,39.70000076293945,873.0,927.0,92700.0,189.0,3.9000000953674316,175.88211794958767,50.76958289898903,814.7992721839573,26.34535631401483
LT_101-102_A1,True,203.0,209.0,B6,80.858871,-27.521763,85.414307,-78.352364,37.12598,86.703122,175.0,2.506507,9.604218,48.81,False,378.18262390290056,53.41546058654785,35.5797547942,-114.0633830655,342.5346845645803,52.55291889027809,269393,81.32743088984492,362.0,41.20000076293945,742.0,962.0,96200.0,184.0,4.099999904632568,21.46531543541971,50.7457603105795,1007.9101095381766,37.521463503941185
LT_101-102_A1,True,203.0,224.0,B7,-162.815048,-21.843981,164.273865,163.419537,47.186234,170.095519,400.0,0.604489,25.342253,41.07,False,727.3432693702106,69.99663352966309,35.355419888750006,-113.968093071,80.9533122476027,1.4399883635815744,270208,72.2396121632983,185.0,42.70000076293945,848.0,989.0,98900.0,187.0,3.9000000953674316,106.0466877523973,58.32792371720279,1155.6501905660446,62.938013190129226
LT_101-102_A1,True,204.0,209.0,B8,-33.210869,-8.921564,34.388313,33.566821,10.29014,35.108666,175.0,0.355952,1.368576,19.65,False,153.23729591791349,48.06883811950683,35.9976998197,-114.18635032750001,171.49301131316565,43.3047846821941,264540,106.2828182492113,765.0,39.70000076293945,873.0,927.0,92700.0,189.0,3.9000000953674316,17.506988686834347,47.60237557405344,956.2996673787386,16.023982977840404
LT_101-102_A1,True,205.0,210.0,B9,-5.024042,-32.130379,32.520798,5.271925,33.077072,33.494565,175.0,0.247883,0.946693,18.58,False,142.08619140410835,47.92038917541504,35.93352645830001,-114.072961317,206.60422896348982,36.22324095579948,264540,107.77888525794216,765.0,39.70000076293945,873.0,927.0,92700.0,189.0,3.9000000953674316,162.39577103651018,47.48685433423816,957.1944257010251,14.844026207115444
LT_101-102_A1,True,206.0,210.0,10,-74.687508,-133.553238,153.0186,75.588819,137.473223,156.883895,175.0,0.901312,3.919985,87.44,False,664.8570835503065,66.34692192077637,35.7876102904,-114.02661411900002,270.1901520712983,24.58276518571172,265345,100.34878020381882,697.0,39.70000076293945,872.0,932.0,93200.0,184.0,4.199999809265137,93.80984792870169,53.14338393102662,1241.037772268771,53.57267106664007
LT_101-102_A1,True,207.0,208.0,11,-0.066102,15.986778,15.986915,0.117834,-15.789906,15.790346,175.0,0.051733,0.196872,9.14,False,71.9279412927879,47.24129676818848,35.9931404214,-113.2002752525,238.0869400541825,24.9097490232365,269393,168.936732686421,362.0,41.20000076293945,742.0,962.0,96200.0,184.0,4.099999904632568,125.91305994581751,45.536592849144654,1172.793319529432,6.133044935969456
LT_101-102_A1,True,208.0,209.0,1,-84.663269,5.745543,84.858009,88.342869,8.348115,88.736427,175.0,3.6796,14.093658,48.49,False,386.3331668624365,53.6910343170166,35.869460766900005,-113.7342668105,259.4509328750614,76.42303064956775,269393,124.63888746734791,362.0,41.20000076293945,742.0,962.0,96200.0,184.0,4.099999904632568,104.54906712493857,48.294902775589435,1207.7468113163438,31.987926876939163
LT_101-102_A1,True,208.0,210.0,2,-66.025017,-19.324024,68.794777,68.399415,28.418478,74.068143,175.0,2.374398,9.094454,39.31,False,313.2020698482934,51.41837120056152,35.86081880785,-113.740291285,258.21609606641846,77.87575473426104,269393,123.57789086146938,362.0,41.20000076293945,742.0,962.0,96200.0,184.0,4.099999904632568,105.78390393358154,47.25466230087477,1205.9578949224115,25.97122761640398
LT_101-102_A1,True,209.0,211.0,14,-91.851082,-33.880539,97.90052,92.060146,42.645217,101.457799,400.0,0.209064,8.764678,24.48,False,427.74486541295846,55.17880439758301,35.803296077,-114.15919206150001,255.04753795152322,1.5606506659808639,264540,92.36331760486274,765.0,39.70000076293945,873.0,927.0,92700.0,189.0,3.9000000953674316,113.95246204847678,48.75758797220624,1178.9297255466645,36.28247351339072
LT_101-102_A1,True,209.0,212.0,15,-105.798813,-44.223427,114.669525,106.08563,56.24779,120.074872,400.0,0.286817,12.024364,28.67,False,501.0116446581987,58.15680503845215,35.7982763547,-114.1484987875,164.51081322878485,1.5763836313303292,264540,92.71146744646519,765.0,39.70000076293945,873.0,927.0,92700.0,189.0,3.9000000953674316,24.489186771215145,53.266927479162405,1015.3749400800427,49.342526083882234
LT_101-102_A1,True,210.0,211.0,16,-153.028625,7.739003,153.224182,153.51039,12.458219,154.015087,400.0,0.481764,20.197222,38.31,False,649.3257343827098,65.4832935333252,35.79465411795,-114.165216536,344.5036493141338,1.5763988480578353,264540,91.3311064017178,765.0,39.70000076293945,873.0,927.0,92700.0,189.0,3.9000000953674316,24.49635068586622,57.999287157428626,1015.4301397290271,63.94587958123695
LT_101-102_A1,True,210.0,212.0,17,-167.934677,-2.176462,167.948776,168.513484,26.442043,170.575426,400.0,0.578807,24.265581,41.99,False,711.7248784847632,69.05837059020996,35.78963439565,-114.154523262,75.03993290589335,1.560647321312595,264540,91.68344274909107,765.0,39.70000076293945,873.0,927.0,92700.0,189.0,3.9000000953674316,113.96006709410665,55.786734522633196,1178.9186605004647,60.370991004810094
LT_101-102_A1,True,211.0,213.0,18,-112.189827,-79.299065,137.385956,113.293849,88.11514,143.526214,500.0,1.104022,8.816075,27.48,False,347.53053045705303,52.42880821228027,35.9737901158,-114.3952240275,313.214519946109,56.101241393014526,260525,90.78880369689668,1528.0,35.400001525878906,624.0,847.0,84700.0,189.0,3.700000047683716,55.78548005389098,42.347339199259295,1215.6460389321358,28.58813497737676
LT_101-102_A1,True,211.0,214.0,19,-133.380692,24.195627,135.557495,134.325297,-16.275401,135.307702,500.0,0.944606,7.920227,27.11,False,342.90526860532464,52.28692054748535,35.68454797925,-114.33006002350001,228.5567635847391,39.217093492331436,264540,72.32209336765068,765.0,39.70000076293945,873.0,927.0,92700.0,189.0,3.9000000953674316,140.4432364152609,48.187201850618294,1107.605889821773,30.95914095044242
LT_101-102_A1,True,212.0,213.0,20,-86.973167,-62.860489,107.311569,87.624273,68.05984,110.951138,500.0,0.651106,5.199351,21.46,False,268.65409833008755,50.25948524475098,35.968770393499994,-114.3845307535,312.728141959339,58.27352990394753,260525,91.10269265356733,1528.0,35.400001525878906,624.0,847.0,84700.0,189.0,3.700000047683716,56.271858040661016,41.15131488525367,1216.6774140762002,22.080963714944232
LT_101-102_A1,True,212.0,223.0,21,-187.625961,-19.829348,188.670883,191.838885,53.821749,199.245925,500.0,4.212924,33.992401,37.73,False,472.3368265494883,56.93968772888184,35.80789751575,-114.84130532949999,272.07825544446206,125.42411855974576,257353,50.9569086479279,899.0,38.70000076293945,878.0,896.0,89600.0,189.0,3.5999999046325684,96.92174455553794,48.87834068437951,1182.9969585091292,39.927137863883466
LT_101-102_A1,True,213.0,223.0,22,-167.22876,6.487088,167.354538,170.120633,16.343313,170.903872,500.0,2.891873,22.8304,33.47,False,405.40854134970215,54.35864448547363,35.985222525750004,-115.07967101,246.747631827701,89.64501743467814,253425,49.52932837718548,1082.0,39.0,730.0,903.0,90300.0,207.0,3.4000000953674316,140.252368172299,48.46523475646973,1085.2497895429751,37.35624233757552
LT_101-102_A1,True,214.0,216.0,23,-305.147888,-9.44696,305.294098,309.912174,65.563072,316.771325,500.0,4.764286,56.116112,61.06,False,775.1117166118179,72.97053337097168,35.4145503497,-114.6116655375,212.44947011073543,40.306364052426176,265345,34.124564386584666,697.0,39.70000076293945,872.0,932.0,93200.0,184.0,4.199999809265137,151.55052988926457,61.02851077925152,1069.3643039188953,72.48341035615915
LT_101-102_A1,True,215.0,216.0,24,166.569214,-65.622711,179.029739,-165.952629,70.85413,180.445512,500.0,0.616585,5.231419,35.81,False,442.40927036046776,55.73979377746582,35.205040229,-114.65326848149999,311.7614206360051,18.865123622721175,266961,16.946118844596615,770.0,38.900001525878906,874.0,921.0,92100.0,184.0,4.199999809265137,52.238579363994916,48.285167435518815,1191.164667418681,37.14089936189871
LT_101-102_A1,True,215.0,221.0,1,-140.730972,-39.815495,146.254852,141.951837,49.767715,150.423234,500.0,1.220865,9.95222,29.25,False,361.41762101322286,52.86595344543457,35.23245624485,-114.8868583705,288.44475129996886,59.50731844131268,265345,2.742624339204692,697.0,39.70000076293945,872.0,932.0,93200.0,184.0,4.199999809265137,75.55524870003114,47.13547722980002,1221.0946442819957,29.597838521823725
LT_101-102_A1,True,215.0,221.0,2,-140.730972,-39.815495,146.254852,141.951837,49.767715,150.423234,500.0,1.220865,9.95222,29.25,False,361.41762101322286,52.86595344543457,35.23245624485,-114.8868583705,288.44475129996886,59.50731844131268,265345,2.742624339204692,697.0,39.70000076293945,872.0,932.0,93200.0,184.0,4.199999809265137,75.55524870003114,47.13547722980002,1221.0946442819957,29.597838521823725
LT_101-102_A1,True,215.0,224.0,26,165.501297,51.801552,173.418793,-163.419541,-36.365263,167.416781,500.0,2.081756,15.436289,34.68,False,428.5437833203957,55.209150314331055,35.252514202,-114.2680134135,67.35719566640654,60.481416120695556,270208,43.88396367981343,185.0,42.70000076293945,848.0,989.0,98900.0,187.0,3.9000000953674316,119.64280433359346,51.444125143294514,1135.9513396344967,37.72554055513362
LT_101-102_A1,True,216.0,217.0,27,-288.232452,-31.104588,289.905914,290.634024,51.880276,295.228215,500.0,2.401572,20.775688,57.98,False,710.9515519011358,69.01244163513184,35.17461923495,-114.825963111,221.90828713981625,25.93674508970559,266153,3.0592867147694096,754.0,39.20000076293945,871.0,924.0,92400.0,184.0,4.199999809265137,142.09171286018375,56.63009789834177,1132.7182818894075,62.76508142123809
LT_101-102_A1,True,216.0,219.0,28,211.220047,-42.995564,215.551682,-209.895815,53.129504,216.515582,500.0,1.324232,10.133941,43.11,False,528.6087500539921,59.39114570617676,35.34035338545,-114.85497218500001,307.96728213387195,28.554000463913425,264540,12.513730050764144,765.0,39.70000076293945,873.0,927.0,92700.0,189.0,3.9000000953674316,61.03271786612805,50.995009762795235,1171.0555804541732,45.139509932481644
LT_101-102_A1,True,217.0,218.0,29,-118.643143,-37.653461,124.474808,118.926498,39.633332,125.356742,500.0,0.283355,1.97987,24.89,False,299.9482610570093,51.05586051940918,35.10132792,-114.999522918,282.00426444829014,14.57343843515518,263731,2.135943719328595,927.0,37.5,877.0,903.0,90300.0,184.0,4.300000190734863,81.99573555170986,44.04780864715576,1271.577746432505,23.588668636151734
LT_101-102_A1,True,217.0,222.0,30,-13.805922,-18.444876,23.039463,13.835922,18.66947,23.23751,500.0,0.030001,0.224594,4.61,False,55.51843761459995,47.14615821838379,35.70936497125,-115.1056865365,346.55568240887214,142.19993312364048,257353,26.265606048579304,899.0,38.70000076293945,878.0,896.0,89600.0,189.0,3.5999999046325684,22.444317591127856,45.89274804379238,981.5674246682319,5.656100255503597
LT_101-102_A1,True,218.0,221.0,1,-28.57132,25.133032,38.052456,28.615189,-24.753522,37.83604,500.0,0.04387,0.37951,7.61,False,91.06411508094044,47.38236427307129,35.2156142699,-115.13791234499999,334.068802934961,24.91093291739191,260530,0.6477738589819187,1220.0,36.20000076293945,892.0,874.0,87400.0,184.0,4.199999809265137,29.931197065038987,42.613331962587836,1117.1059470255884,8.151788585801391
LT_101-102_A1,True,218.0,221.0,2,-28.57132,25.133032,38.052456,28.615189,-24.753522,37.83604,500.0,0.04387,0.37951,7.61,False,91.06411508094044,47.38236427307129,35.2156142699,-115.13791234499999,334.068802934961,24.91093291739191,260530,0.6477738589819187,1220.0,36.20000076293945,892.0,874.0,87400.0,184.0,4.199999809265137,29.931197065038987,42.613331962587836,1117.1059470255884,8.151788585801391
LT_101-102_A1,True,219.0,220.0,1,25.260036,-40.282135,47.547028,-25.168776,41.010887,48.118189,500.0,0.09126,0.728752,9.51,False,116.14523871372953,47.61775016784668,35.532956375,-115.2128843045,301.01727582000524,49.281334286649994,258141,6.324163197299666,954.0,38.900001525878906,889.0,903.0,90300.0,189.0,3.5999999046325684,67.98272417999476,44.60663657831901,1157.8711453926103,10.030929536148607
LT_101-102_A1,True,219.0,220.0,2,25.260036,-40.282135,47.547028,-25.168776,41.010887,48.118189,500.0,0.09126,0.728752,9.51,False,116.14523871372953,47.61775016784668,35.532956375,-115.2128843045,301.01727582000524,49.281334286649994,258141,6.324163197299666,954.0,38.900001525878906,889.0,903.0,90300.0,189.0,3.5999999046325684,67.98272417999476,44.60663657831901,1157.8711453926103,10.030929536148607
LT_101-102_A1,True,220.0,223.0,1,-31.185072,-43.599339,53.60421,31.258874,44.139564,54.087136,500.0,0.073802,0.540226,10.72,False,129.33211992502245,47.76373863220215,35.73552259805,-115.491516237,337.70442527395744,21.35444911338634,253425,5.089453500966101,1082.0,39.0,730.0,903.0,90300.0,207.0,3.4000000953674316,49.29557472604256,44.249162673950195,1119.07289225605,11.557077364664693
LT_101-102_A1,True,220.0,223.0,2,-31.185072,-43.599339,53.60421,31.258874,44.139564,54.087136,500.0,0.073802,0.540226,10.72,False,129.33211992502245,47.76373863220215,35.73552259805,-115.491516237,337.70442527395744,21.35444911338634,253425,5.089453500966101,1082.0,39.0,730.0,903.0,90300.0,207.0,3.4000000953674316,49.29557472604256,44.249162673950195,1119.07289225605,11.557077364664693
LT_101-102_A1,True,221.0,222.0,34,13.865936,-20.760233,24.965004,-13.835922,20.986592,25.13702,500.0,0.030014,0.226359,4.99,False,60.0948181928479,47.16994285583496,35.823651321149995,-115.2440759635,355.81008268792635,113.13137799107704,253425,27.06993274564634,1082.0,39.0,730.0,903.0,90300.0,207.0,3.4000000953674316,31.189917312073646,44.57514762878418,1041.5682386016406,5.769647725964486
LT_101-102_A1,True,223.0,318.0,1,-2.55384,71.384277,71.429947,3.374365,-64.832042,64.919796,500.0,0.820525,6.552236,14.29,False,170.76646680886213,48.32554817199707,35.6650814384,-116.25650849249999,255.190966299923,134.83363637092583,239061,1.6960774471141216,224.0,43.70000076293945,889.0,982.0,98200.0,174.0,3.4000000953674316,98.80903370007701,49.50824792621279,1091.9513528603932,15.638651516987018
LT_101-102_A1,True,301.0,302.0,C1,9.44515,-31.435532,32.823826,-9.438872,31.464779,32.850033,175.0,0.006279,0.029248,18.76,False,142.93204622726392,47.93105125427246,35.03875954075,-118.843312456,243.44298077505434,4.386662067124732,193839,1.9317872823073838,197.0,44.29999923706055,909.0,993.0,99300.0,357.0,1.7999999523162842,113.55701922494566,52.363011771543825,871.4525943299375,16.40158594480573
LT_101-102_A1,True,301.0,303.0,C2,-11.443392,15.687397,19.417664,11.721246,-14.623389,18.741161,175.0,0.277854,1.064008,11.1,False,84.5546295691879,47.3306941986084,35.132562363350004,-118.432657652,74.8245157929639,73.24899856739759,201352,1.1569499647389767,1234.0,37.29999923706055,936.0,873.0,87300.0,149.0,2.200000047683716,74.1754842070361,44.82925665695075,1017.6775017708618,8.30858787995748
LT_101-102_A1,True,301.0,305.0,C3,32.510109,-0.983762,32.524986,-32.258213,1.955224,32.317413,175.0,0.251896,0.971462,18.59,False,141.63074111144485,47.91464805603027,34.96073353885,-118.666126353,124.16098495024664,34.31766044565577,197187,1.159579646235395,1318.0,37.70000076293945,935.0,876.0,87600.0,357.0,1.7000000476837158,52.83901504975336,47.08830543958902,908.64019027971,15.587109466052357
LT_101-102_A1,True,302.0,304.0,C4,20.296207,14.978741,25.224962,-20.051639,-14.039239,24.477918,175.0,0.244568,0.939502,14.41,False,109.70677958025584,47.55131721496582,34.83101416905,-118.714222427,148.04905085666337,52.08829416605541,196510,2.4486343801899135,1006.0,38.0,934.0,886.0,88600.0,357.0,1.7999999523162842,28.95094914333663,48.232276916503906,837.5378719829828,13.098724636834676
LT_101-102_A1,True,302.0,306.0,C5,27.750546,-4.846743,28.170618,-27.331214,6.45404,28.082911,175.0,0.419331,1.607297,16.1,False,122.51783687783508,47.68664360046387,34.95855226255,-118.57052961950001,106.3161668365982,55.94519037768375,198553,1.5187727987860509,1572.0,33.79999923706055,945.0,816.0,81600.0,357.0,1.7999999523162842,70.6838331634018,42.80901988347614,986.9909168651603,12.413268935338449
LT_101-102_A1,True,303.0,309.0,C6,11.823239,-10.81536,16.023762,-11.740813,11.131192,16.178694,175.0,0.082426,0.315832,9.16,False,72.2508823263838,47.242937088012695,34.976650231700006,-118.08544598200001,188.13452627185995,54.11331791886194,206968,1.4846723558012531,783.0,40.099998474121094,929.0,919.0,91900.0,149.0,2.299999952316284,140.86547372814005,48.067413197262795,928.0948026594893,7.784860137062106
LT_101-102_A1,True,303.0,324.0,C7,-156.024704,3.281839,156.059219,156.590482,20.437502,157.918556,400.0,0.565778,23.719341,39.01,False,703.668481091791,68.5810375213623,35.212062175599996,-118.039183389,146.93439430470073,1.454265274314389,208330,1.7152550570184055,708.0,40.79999923706055,922.0,932.0,93200.0,149.0,2.4000000953674316,2.0656056952992685,77.30170606573665,660.987270730268,106.45719097046577
LT_101-102_A1,True,304.0,309.0,C8,-34.412457,6.047967,34.939877,34.795788,-4.574123,35.095148,175.0,0.383331,1.473844,19.97,False,156.6033462229779,48.11640739440918,34.68392469455,-118.345463673,73.75738112970913,41.52056208016359,202769,0.8280799601706181,773.0,40.0,925.0,927.0,92700.0,189.0,3.0,115.24261887029087,46.73433303833008,1076.8324491552999,14.542963145828521
LT_101-102_A1,True,305.0,310.0,C9,-19.997875,-10.155583,22.428795,20.11979,10.621192,22.751169,175.0,0.121915,0.465608,12.82,False,98.39167101003004,47.44551658630371,34.801600393499996,-118.30750604849999,113.32976259868565,40.40249884327066,203469,1.1424100378689062,748.0,40.5,926.0,931.0,93100.0,149.0,2.5,35.67023740131435,48.41626834869385,933.9925557100449,10.53452411461997
LT_101-102_A1,True,306.0,310.0,10,-72.764954,-113.492332,134.815613,73.579764,117.036106,138.244102,175.0,0.81481,3.543774,77.04,False,591.1706520717869,62.41015434265137,34.808241774349995,-118.190362231,138.18711791697945,23.53186086187305,205576,0.9386546028337737,713.0,40.70000076293945,925.0,933.0,93300.0,149.0,2.4000000953674316,10.812882083020554,66.00220728234126,748.6181886189196,78.96824590415066
LT_101-102_A1,True,307.0,308.0,11,-35.845001,19.59997,40.85368,36.175869,-18.340835,40.559583,175.0,0.330868,1.259135,23.34,False,188.6877981952809,48.61588478088379,34.16299173335,-118.7662179435,56.26178119320775,24.75670932515617,195171,1.4464621072353085,372.0,29.5,907.0,976.0,97600.0,243.0,3.5999999046325684,6.738218806792247,40.162720680236816,977.9545503884195,19.294127535920634
LT_101-102_A1,True,308.0,309.0,1,-85.152664,7.668886,85.497299,89.058833,7.292579,89.35691,175.0,3.906168,14.961465,48.86,False,397.90433311875745,54.092912673950195,34.4802378884,-118.39079997799999,40.21333607696363,74.5767423466253,202071,1.4426397722920923,762.0,39.599998474121094,919.0,939.0,93900.0,189.0,3.299999952316284,148.78666392303637,50.91562813382188,1010.7460096998276,39.36739094690341
LT_101-102_A1,True,308.0,310.0,2,-76.879425,-13.706273,78.09166,80.099668,26.040495,84.226268,175.0,3.220243,12.334222,44.62,False,363.43849756513066,52.93074607849121,34.4770168747,-118.37939134349999,41.771399382824995,75.41473787810489,202071,1.436609056439648,762.0,39.599998474121094,919.0,939.0,93900.0,189.0,3.299999952316284,147.228600617175,50.02232063222618,1019.8946627902293,35.63490533138345
LT_101-102_A1,True,309.0,311.0,14,-105.122231,-16.448324,106.401276,105.380583,27.27934,108.854167,400.0,0.258352,10.831016,26.6,False,475.5009659369977,57.070913314819336,34.7389259,-118.11963760200001,63.413327538162264,1.5744173883172414,206974,2.0006750741101893,711.0,41.20000076293945,925.0,943.0,94300.0,189.0,3.0999999046325684,125.58667246183774,53.0213859126161,1052.8735355857991,45.162210832133596
LT_101-102_A1,True,309.0,312.0,15,-135.791794,-14.897089,136.606491,136.217648,32.750378,140.099375,400.0,0.425855,17.853289,34.15,False,610.4862729631532,63.40254783630371,34.7293605034,-118.12361469999999,154.41113041358733,1.577419398220969,206278,1.4537852103916686,706.0,41.099998474121094,924.0,944.0,94400.0,189.0,3.0,34.58886958641267,58.646326765432605,975.4116010633828,62.58755506881483
LT_101-102_A1,True,310.0,311.0,16,-142.853851,23.421535,144.761154,143.30206,-4.631083,143.376872,400.0,0.448209,18.790453,36.19,False,626.3043160189441,64.23665046691895,34.7357048863,-118.1082289675,334.52631029314165,1.573879005359757,206974,0.9642253309948795,711.0,41.20000076293945,925.0,943.0,94300.0,189.0,3.0999999046325684,34.47368970685835,59.0429923359261,982.3086257216808,63.75840541548863
LT_101-102_A1,True,310.0,312.0,17,-174.465607,26.040035,176.398224,175.131132,1.861084,175.141021,400.0,0.665526,27.901119,44.1,False,763.1810466865749,72.21352577209473,34.726139489699996,-118.11220606549999,243.29540826571312,1.571676799018731,206974,1.1628829141889936,711.0,41.20000076293945,925.0,943.0,94300.0,189.0,3.0999999046325684,125.70459173428688,61.84112770167849,1052.6184117311432,72.5031063660992
LT_101-102_A1,True,311.0,313.0,18,-178.064133,-51.702278,185.41835,180.283327,69.423477,193.188243,500.0,2.219195,17.721199,37.08,False,485.97091812697886,57.51051902770996,34.50368100025,-118.065394118,170.8349978934301,53.70230936357421,207669,1.5864932931362066,1163.0,39.20000076293945,930.0,914.0,91400.0,189.0,3.299999952316284,18.165002106569887,55.32980646017677,911.8294799063169,53.29624988401433
LT_101-102_A1,True,311.0,314.0,19,-70.618515,29.054022,76.36171,70.950004,-26.274591,75.658821,500.0,0.331489,2.77943,15.27,False,200.13968584256145,48.816823959350586,34.8435290479,-117.8984061615,59.815032333039426,45.030436553750164,210340,0.7293270345475279,697.0,41.0,926.0,934.0,93400.0,149.0,2.5,89.18496766696057,48.33609580993652,1040.168648187719,19.241080395113222
LT_101-102_A1,True,312.0,313.0,20,-122.392563,-58.268135,135.55484,123.555068,67.551224,140.815562,500.0,1.162505,9.283089,27.11,False,354.4099924848135,52.64286994934082,34.49411560365,-118.069371216,169.66021641891973,51.728822906200705,207669,0.9469890389000564,1163.0,39.20000076293945,930.0,914.0,91400.0,189.0,3.299999952316284,19.33978358108027,51.44742732383747,921.9190798245932,38.44263561095237
LT_101-102_A1,True,312.0,323.0,21,-188.956223,23.656681,190.431335,193.745914,14.989426,194.324888,500.0,4.789691,38.646107,38.09,False,497.8853429816521,58.0214786529541,34.4879832208,-117.61655421500001,119.24125114688786,106.0334140418212,215042,0.37812492327164215,1076.0,39.0,926.0,908.0,90800.0,170.0,2.9000000953674316,50.75874885311214,52.22492790222168,1050.756817702937,47.38349869288319
LT_101-102_A1,True,313.0,323.0,22,-152.093521,51.639164,160.620804,155.065231,-28.17848,157.604735,500.0,2.97171,23.460684,32.12,False,404.7259263963176,54.33403968811035,34.25913575225,-117.56603806300001,90.68381410399729,83.24113817308535,215722,1.5973050712788772,2210.0,28.0,955.0,771.0,77100.0,170.0,3.200000047683716,79.31618589600271,38.81486129760742,1252.6176802065804,32.31041145208573
LT_101-102_A1,True,314.0,316.0,23,-190.231094,5.54239,190.311813,192.251195,18.251349,193.115596,500.0,2.0201,23.793739,38.06,False,504.18286819181066,58.29541206359863,35.0416656677,-117.46823389549999,61.27736452675009,44.927729327005714,217731,1.1754647648536851,757.0,40.79999923706055,920.0,924.0,92400.0,136.0,2.700000047683716,74.72263547324991,53.69663853580278,1040.647837431907,48.44894209707143
LT_101-102_A1,True,315.0,316.0,24,15.995015,18.153515,24.194847,-15.981027,-18.034829,24.096644,500.0,0.013989,0.118686,4.84,False,63.0659822184523,47.18716621398926,35.2021686149,-117.31901108699999,139.1505915831454,18.746587950621127,220478,1.894277405563819,1001.0,38.900001525878906,920.0,894.0,89400.0,136.0,3.0,176.8494084168546,50.39903422626958,738.4446604508315,8.540380287935127
LT_101-102_A1,True,315.0,321.0,1,-121.432182,3.782178,121.491074,122.390894,4.033028,122.457324,500.0,0.958711,7.815206,24.3,False,316.6770970936362,51.51597023010254,35.50565725275,-117.25089816349998,24.63912469184521,58.68035354688509,221165,1.909962955671058,792.0,40.79999923706055,913.0,929.0,92900.0,143.0,3.200000047683716,118.36087530815479,49.13986056508293,1080.4016363289625,29.31105307926559
LT_101-102_A1,True,315.0,321.0,2,-121.432182,3.782178,121.491074,122.390894,4.033028,122.457324,500.0,0.958711,7.815206,24.3,False,316.6770970936362,51.51597023010254,35.50565725275,-117.25089816349998,24.63912469184521,58.68035354688509,221165,1.909962955671058,792.0,40.79999923706055,913.0,929.0,92900.0,143.0,3.200000047683716,118.36087530815479,49.13986056508293,1080.4016363289625,29.31105307926559
LT_101-102_A1,True,315.0,324.0,26,158.556976,25.178047,160.543594,-156.590494,-10.59652,156.948619,500.0,1.966482,14.581527,32.11,False,418.470901861476,54.83351707458496,35.2362759736,-117.71062519,263.78864241348344,59.25640398232974,213678,1.7859132718646786,892.0,39.20000076293945,925.0,901.0,90100.0,143.0,2.799999952316284,59.211357586516556,50.40043941258773,1051.381269714199,39.80201225909517
LT_101-102_A1,True,316.0,317.0,27,-132.750809,-8.119674,132.998901,133.326436,13.09935,133.968397,500.0,0.575627,4.979676,26.6,False,348.05441736817244,52.44439125061035,35.25840025645,-117.15370904899999,33.601264589227526,32.0703414274824,223263,1.5292915789926425,958.0,39.29999923706055,915.0,904.0,90400.0,142.0,3.4000000953674316,108.39873541077247,47.83710120431351,1133.1077265593044,30.716798518799617
LT_101-102_A1,True,316.0,319.0,28,-28.340084,8.990705,29.732021,28.370392,-8.758769,29.691668,500.0,0.030308,0.231936,5.95,False,77.80787035475781,47.28066444396973,35.0279991523,-117.188004079,154.70724354717186,27.138990967823084,222571,2.112861749248584,640.0,41.29999923706055,912.0,937.0,93700.0,136.0,3.4000000953674316,161.29275645282814,49.29510787071922,899.3575186789221,8.65149495487076
LT_101-102_A1,True,317.0,318.0,29,-84.067848,-5.646614,84.257278,84.219855,6.708722,84.486632,500.0,0.152007,1.062109,16.85,False,219.05400149869183,49.17359352111816,35.44212331835,-117.01620042849999,26.8584961244473,15.879932652806714,225363,0.9337792042101049,1006.0,39.79999923706055,910.0,912.0,91200.0,142.0,3.4000000953674316,115.1415038755527,46.63937342265126,1118.2075101045325,19.589745151882784
LT_101-102_A1,True,317.0,322.0,30,-49.258587,-2.368098,49.315475,49.632375,5.166402,49.900545,500.0,0.373788,2.798304,9.86,False,128.21150161720985,47.7506160736084,35.9086959435,-117.27055059599999,341.9673129068019,124.1052965213618,221155,2.268894183696831,816.0,40.5,909.0,924.0,92400.0,151.0,3.700000047683716,169.0326870931981,49.65179920196533,858.7299516169174,14.930363308721002
LT_101-102_A1,True,318.0,321.0,1,-61.68412,4.03174,61.815739,61.807345,-2.965742,61.878457,500.0,0.123224,1.065998,12.36,False,160.30619549645422,48.16889762878418,35.625578804750006,-117.045967096,334.8207162541743,29.440966906351033,224654,2.1245980851639903,744.0,41.900001525878906,903.0,946.0,94600.0,142.0,3.4000000953674316,167.17928374582573,51.26451733398426,839.7112398923854,19.090633527425275
LT_101-102_A1,True,318.0,321.0,2,-61.68412,4.03174,61.815739,61.807345,-2.965742,61.878457,500.0,0.123224,1.065998,12.36,False,160.30619549645422,48.16889762878418,35.625578804750006,-117.045967096,334.8207162541743,29.440966906351033,224654,2.1245980851639903,744.0,41.900001525878906,903.0,946.0,94600.0,142.0,3.4000000953674316,167.17928374582573,51.26451733398426,839.7112398923854,19.090633527425275
LT_101-102_A1,True,319.0,320.0,1,-80.793312,-6.990721,81.095192,81.149915,9.838346,81.744124,500.0,0.356603,2.847624,16.22,False,212.61784691795583,49.04892921447754,34.69004841255,-117.0939638955,173.7034075408551,50.917641569310206,223976,0.5349460739898468,1137.0,38.0,921.0,888.0,88800.0,147.0,3.9000000953674316,153.2965924591449,46.094032287597656,1041.6554007336733,20.41153406089978
LT_101-102_A1,True,319.0,320.0,2,-80.793312,-6.990721,81.095192,81.149915,9.838346,81.744124,500.0,0.356603,2.847624,16.22,False,212.61784691795583,49.04892921447754,34.69004841255,-117.0939638955,173.7034075408551,50.917641569310206,223976,0.5349460739898468,1137.0,38.0,921.0,888.0,88800.0,147.0,3.9000000953674316,153.2965924591449,46.094032287597656,1041.6554007336733,20.41153406089978
LT_101-102_A1,True,320.0,323.0,1,-128.253998,-11.76304,128.792297,128.788493,15.675529,129.738962,500.0,0.534496,3.91249,25.76,False,335.52184322400046,52.0638370513916,34.35773449745,-117.0883646675,191.09942568688564,23.73400695445522,223984,1.7037065959877034,1551.0,34.20000076293945,934.0,840.0,84000.0,147.0,3.9000000953674316,135.90057431311436,43.158601729192014,1183.103797958696,28.359459567529345
LT_101-102_A1,True,320.0,323.0,2,-128.253998,-11.76304,128.792297,128.788493,15.675529,129.738962,500.0,0.534496,3.91249,25.76,False,335.52184322400046,52.0638370513916,34.35773449745,-117.0883646675,191.09942568688564,23.73400695445522,223984,1.7037065959877034,1551.0,34.20000076293945,934.0,840.0,84000.0,147.0,3.9000000953674316,135.90057431311436,43.158601729192014,1183.103797958696,28.359459567529345
LT_101-102_A1,True,321.0,322.0,34,-35.748783,2.33008,35.824638,35.879199,-1.346514,35.904456,500.0,0.130416,0.983566,7.16,False,92.87626698759033,47.39712715148926,36.0921514299,-117.30031726349999,336.7951627128865,83.98330271350771,220456,0.23954791994549104,372.0,43.400001525878906,904.0,972.0,97200.0,151.0,3.799999952316284,174.2048372871135,52.803412940193084,775.6722584296606,11.973648145624963
LT_101-102_A1,True,323.0,325.0,35,-187.759399,20.068758,188.828888,187.759399,-16.665624,188.497573,722.0,0.0,3.403134,26.15,False,488.569054517016,57.62042045593262,34.252447341449994,-117.12109914749999,265.12388154306666,1.4534200752008906,223288,1.6967119263507657,1700.0,34.70000076293945,936.0,853.0,85300.0,147.0,3.5,61.87611845693334,46.558403163850016,1188.842565909785,41.09619461203671
LT_101-103_A2,True,101.0,102.0,A1,57.101833,-39.354588,69.349861,-56.98606,39.893876,69.562435,175.0,0.115774,0.539288,39.63,False,301.0637310230679,51.08538627624512,33.3768908526,-113.8307877345,168.0832196909272,4.366718050928278,272693,66.37854754514882,91.0,43.29999923706055,830.0,1002.0,100200.0,122.0,3.200000047683716,133.9167803090728,51.00007575016207,1032.0736797745278,29.170759503220722
LT_101-103_A2,True,101.0,105.0,A3,124.584854,-11.183788,125.085815,-120.883904,25.456738,123.535274,175.0,3.70095,14.27295,71.48,False,543.0263538950888,60.0595760345459,33.527831551000006,-113.917332536,332.7077807708397,32.97810897483768,272693,55.37740896846629,91.0,43.29999923706055,830.0,1002.0,100200.0,122.0,3.200000047683716,149.2922192291603,57.58718743829377,963.4977724943705,56.359897178512846
LT_101-103_A2,True,102.0,104.0,A4,97.083458,4.140123,97.171692,-93.728946,8.746031,94.136117,175.0,3.354511,12.886154,55.53,False,421.46380879035354,54.94423866271973,33.58499098295,-113.82567627200001,0.053868993317280456,50.552094829892674,273508,61.87228040205209,89.0,43.20000076293945,832.0,999.0,99900.0,122.0,3.0,121.94613100668272,52.95488888002728,1041.5330631958345,40.46571574954483
LT_101-103_A2,True,102.0,106.0,A5,89.267746,-9.303022,89.75119,-84.959922,25.814779,88.795221,175.0,4.307824,16.511757,51.29,False,389.27878688030546,53.79273414611816,33.54785744425,-114.003928834,322.14286051780334,53.63905217588826,272693,47.56965144659038,91.0,43.29999923706055,830.0,1002.0,100200.0,122.0,3.200000047683716,159.85713948219666,55.01431870015949,890.7119722186746,43.704227519323766
LT_101-103_A2,True,103.0,109.0,A6,-25.152954,-9.154197,26.766964,25.404327,10.117379,27.344857,175.0,0.251373,0.963183,15.3,False,121.1063355281767,47.67106056213379,33.72863454765,-114.48934004450001,38.03489934721705,54.229833774295344,273508,0.9566740748851706,89.0,43.20000076293945,832.0,999.0,99900.0,122.0,3.0,83.96510065278295,48.60895231158793,1078.7158164828188,11.22689902916665
LT_101-103_A2,True,103.0,124.0,A7,-128.661972,-22.46332,130.608215,129.060984,39.191145,134.880256,400.0,0.399012,16.727825,32.65,False,590.9329989208429,62.39785194396973,33.53989894155,-114.6634437025,62.122581397062504,1.4584863725043906,270245,1.1363138040058882,75.0,43.5,835.0,1001.0,100100.0,122.0,3.200000047683716,59.877418602937496,56.931275367736816,1059.3326668731872,55.783515169516015
LT_101-103_A2,True,104.0,109.0,A8,30.493916,-18.510036,35.672123,-30.112188,19.977702,36.13658,175.0,0.381727,1.467665,20.38,False,160.0689717826691,48.16561698913574,33.8663698982,-114.066850007,285.22792751338363,46.175372092212655,277498,39.42199663193729,151.0,42.29999923706055,833.0,989.0,98900.0,107.0,2.5999999046325684,1.7720724866163664,54.225492711957486,681.7502693611173,23.479121164509866
LT_101-103_A2,True,105.0,110.0,A9,60.212456,-35.316311,69.805313,-58.991883,39.97778,71.261947,175.0,1.220573,4.661469,39.89,False,307.1570869696502,51.25105857849121,33.786176454599996,-114.14599382399999,316.1102545640957,39.125724159032,273508,31.981051974502726,89.0,43.20000076293945,832.0,999.0,99900.0,122.0,3.0,165.88974543590427,54.44271541262424,823.750016524775,37.287657761207726
LT_101-103_A2,True,106.0,110.0,10,-31.255808,-135.288422,138.85202,31.502074,136.359473,139.951015,175.0,0.246266,1.071052,79.34,False,611.8777172534484,63.475542068481445,33.82541475805,-114.23744436449999,332.2035219612036,21.973081610449327,273508,25.547898565618038,89.0,43.20000076293945,832.0,999.0,99900.0,122.0,3.0,149.7964780387964,60.31118920689187,942.7859993722285,64.90101864695472
LT_101-103_A2,True,107.0,108.0,11,121.295059,17.580479,122.562492,-118.705863,-7.72724,118.957102,175.0,2.589196,9.853239,70.04,False,531.7078872907969,59.53303337097168,34.57823637615,-113.7314761945,191.80450991680215,27.040331428742554,280694,48.23352083597048,170.0,42.0,826.0,991.0,99100.0,137.0,2.5,125.19549008319785,55.638336181640625,1000.8290183522827,53.126745681912325
LT_101-103_A2,True,107.0,203.0,B1,126.889,-8.615953,127.181183,-119.598259,36.512632,125.047654,175.0,7.290741,27.896679,72.67,False,551.7449670986961,60.472116470336914,35.0258321095,-113.838621218,341.18656177700467,77.23111035384919,273483,67.12170109617558,151.0,42.5,838.0,987.0,98700.0,137.0,3.0999999046325684,155.81343822299533,58.560147285461426,921.2724485667935,59.88944616297117
LT_101-103_A2,True,108.0,109.0,1,-11.317969,-3.468011,11.837379,11.382011,3.713302,11.972417,175.0,0.064042,0.245291,6.76,False,52.93602959544285,47.13385581970215,34.18982353435,-114.034962272,220.15903880363092,78.21129921512714,280694,14.468759995973627,170.0,42.0,826.0,991.0,99100.0,137.0,2.5,96.84096119636908,47.628387451171875,1040.9841760538727,5.0851906122253405
LT_101-103_A2,True,108.0,110.0,2,-16.100359,-17.181549,23.546278,16.341457,18.105001,24.389225,175.0,0.241098,0.923452,13.46,False,105.29750454644773,47.50866889953613,34.1860019329,-114.0273040675,218.96149073017423,77.97500234740549,280694,15.230903469254052,170.0,42.0,826.0,991.0,99100.0,137.0,2.5,98.03850926982577,47.860870361328125,1038.9794720378793,10.13470500431685
LT_101-103_A2,True,109.0,111.0,14,-61.139584,-21.251812,64.727798,61.233696,25.197302,66.215327,400.0,0.094113,3.94549,16.18,False,286.9914766637967,50.71549415588379,33.91241117325,-114.304699342,159.67425780531744,1.9031858797390406,273502,18.441799885429408,97.0,42.79999923706055,833.0,991.0,99100.0,107.0,2.700000047683716,127.32574219468256,50.792972594128514,1003.6141417602157,28.595798397225543
LT_101-103_A2,True,109.0,112.0,15,-95.076874,-34.107716,101.009644,95.306062,43.71598,104.853861,400.0,0.229188,9.608264,25.25,False,447.8586910811396,55.95303535461426,33.9156511436,-114.31084169450001,203.947168667828,1.1643839227143522,273502,17.80785802409589,97.0,42.79999923706055,833.0,991.0,99100.0,107.0,2.700000047683716,83.05283133217199,53.133362617394596,1048.6219145928005,42.709262971587954
LT_101-103_A2,True,110.0,111.0,16,-60.310005,8.509882,60.907429,60.388865,-5.203823,60.612662,400.0,0.07886,3.306059,15.23,False,262.7083144891124,50.117597579956055,33.9085895718,-114.2970411375,218.83185834528146,1.199999298332487,273502,19.225322946508676,97.0,42.79999923706055,833.0,991.0,99100.0,107.0,2.700000047683716,68.16814165471854,50.13377459365438,1028.404391386048,25.54523460708323
LT_101-103_A2,True,110.0,112.0,17,-95.1745,-4.762184,95.293564,95.367538,12.854953,96.230022,400.0,0.193038,8.09277,23.82,False,411.0239422534213,54.56122398376465,33.91182954215,-114.30318349000001,263.52385649728956,1.8981503306103409,273502,18.59008452775047,97.0,42.79999923706055,833.0,991.0,99100.0,107.0,2.700000047683716,23.476143502710443,55.60654072708712,875.7842274815599,46.93210146469275
LT_101-103_A2,True,111.0,113.0,18,-116.769203,-18.334978,118.199905,117.65929,25.44264,120.378721,500.0,0.890087,7.107662,23.64,False,307.3822887708685,51.257619857788086,34.1293332045,-114.287887337,2.7798809616962217,50.08528154115857,277498,4.623035951639475,151.0,42.29999923706055,833.0,989.0,98900.0,107.0,2.5999999046325684,104.22011903830378,50.32256072130258,1034.9994403027815,29.698787922140912
LT_101-103_A2,True,111.0,114.0,19,-4.853354,-1.658503,5.128905,4.854935,1.671766,5.134705,500.0,0.001582,0.013263,1.03,False,13.337866538795875,47.01493263244629,33.84073608285,-114.56051449450001,253.6860893720658,49.96150226236739,271871,2.0077707949584878,269.0,42.599998474121094,839.0,987.0,98700.0,107.0,2.700000047683716,33.313910627934206,49.18766064722149,936.5041460602279,1.4242186321231831
LT_101-103_A2,True,112.0,113.0,20,-56.490803,0.056256,56.490833,56.691842,1.549116,56.713003,500.0,0.20104,1.605372,11.3,False,144.77240977169083,47.95483589172363,34.132573174849995,-114.29402968950001,4.126021058856338,49.43428786192113,277498,4.172118022807155,151.0,42.29999923706055,833.0,989.0,98900.0,107.0,2.5999999046325684,102.87397894114366,48.41863348347397,1036.7789137969953,13.963672278161104
LT_101-103_A2,True,112.0,123.0,21,-134.1828,-56.627186,145.642227,136.709995,77.017946,156.912035,500.0,2.527194,20.39076,29.13,False,373.245977224404,53.25142860412598,34.14643314265,-114.691095425,307.21393123188295,87.0443510046333,269416,1.9810322366643094,324.0,41.70000076293945,849.0,971.0,97100.0,128.0,2.799999952316284,0.7860687681170475,59.257911427084764,688.1021386702778,54.242816036828884
LT_101-103_A2,True,113.0,123.0,22,-117.113052,-66.777199,134.813431,119.065804,82.193413,144.680416,500.0,1.952751,15.416214,26.96,False,344.9702035329678,52.35007286071777,34.3681403032,-114.6717226875,272.6456124243665,72.95310639099516,270224,1.0590202066430323,388.0,41.400001525878906,847.0,966.0,96600.0,137.0,2.799999952316284,44.354387575633496,50.767919471880305,1007.7230552493111,34.232639784908166
LT_101-103_A2,True,113.0,215.0,B2,66.559433,-60.076324,89.66227,-65.812798,65.665835,92.969491,500.0,0.746635,5.58951,17.93,False,229.43419881605053,49.382734298706055,34.7514356122,-114.425215633,342.78515118710203,92.50852375989442,273483,7.038480495579008,151.0,42.5,838.0,987.0,98700.0,137.0,3.0999999046325684,154.21484881289797,50.736470222473145,932.388400799089,24.60714854661614
LT_101-103_A2,True,114.0,116.0,23,-170.63327,-26.820745,172.728302,172.226762,45.589529,178.158533,500.0,1.593492,18.768784,34.55,False,449.5589893866166,56.01946830749512,33.71905866655,-115.07048464,254.58110202453383,48.11325865555416,262163,1.5254500733407452,387.0,42.79999923706055,848.0,984.0,98400.0,125.0,3.0999999046325684,50.418897975466166,53.44241108044662,1036.3115443735392,43.3806794710928
LT_101-103_A2,True,115.0,116.0,24,-21.559557,-42.187504,47.377209,21.602827,42.55463,47.723984,500.0,0.04327,0.367126,9.48,False,120.6991754775869,47.66613960266113,33.5836074796,-115.325283222,2.6007230139453554,17.236067799848346,256615,1.991195585655014,994.0,37.79999923706055,878.0,903.0,90300.0,123.0,3.4000000953674316,120.39927698605464,43.74926340334787,1146.9799543644317,10.523215773589445
LT_101-103_A2,True,115.0,121.0,1,-112.377617,14.200372,113.271271,113.180851,-7.652638,113.439269,500.0,0.803234,6.547733,22.65,False,288.5722756483671,50.75650215148926,33.5166525943,-115.700143213,272.1450146356158,68.75953430638423,249642,1.4759306061184725,343.0,41.900001525878906,868.0,983.0,98300.0,123.0,3.5,30.85498536438422,50.29682820838934,1005.9711186612424,28.685940410734883
LT_101-103_A2,True,115.0,121.0,2,-112.377617,14.200372,113.271271,113.180851,-7.652638,113.439269,500.0,0.803234,6.547733,22.65,False,288.5722756483671,50.75650215148926,33.5166525943,-115.700143213,272.1450146356158,68.75953430638423,249642,1.4759306061184725,343.0,41.900001525878906,868.0,983.0,98300.0,123.0,3.5,30.85498536438422,50.29682820838934,1005.9711186612424,28.685940410734883
LT_101-103_A2,True,115.0,124.0,26,130.429581,39.097,136.163315,-129.060998,-28.948997,132.267856,500.0,1.368583,10.148003,27.23,False,346.8925290807008,52.40912437438965,33.524574389449995,-114.9929983545,86.0634407392426,62.52120431249092,263770,1.2987773397332119,181.0,43.099998474121094,843.0,985.0,98500.0,125.0,3.200000047683716,38.936559260757406,52.08533884953067,1002.0924633922735,34.61681848263818
LT_101-103_A2,True,116.0,117.0,27,-134.768707,36.605751,139.651657,135.368642,-31.415831,138.966268,500.0,0.599935,5.18992,27.93,False,353.1249993284757,52.60268211364746,33.6181318947,-115.48093336950001,252.22842579087137,31.107139968025567,253477,1.9140400448987045,626.0,40.29999923706055,872.0,951.0,95100.0,123.0,3.5,50.77157420912863,48.779784614896926,1109.7604975947208,31.819928722804054
...